# generated using pymatgen
data_KAcSbAsI4
_symmetry_space_group_name_H-M   'P 1'
_cell_length_a   4.63770743
_cell_length_b   6.05229723
_cell_length_c   8.54957104
_cell_angle_alpha   89.55625874
_cell_angle_beta   86.43484188
_cell_angle_gamma   90.21326093
_symmetry_Int_Tables_number   1
_chemical_formula_structural   KAcSbAsI4
_chemical_formula_sum   'K1 Ac1 Sb1 As1 I4'
_cell_volume   239.50233479
_cell_formula_units_Z   1
loop_
 _symmetry_equiv_pos_site_id
 _symmetry_equiv_pos_as_xyz
  1  'x, y, z'
loop_
 _atom_site_type_symbol
 _atom_site_label
 _atom_site_symmetry_multiplicity
 _atom_site_fract_x
 _atom_site_fract_y
 _atom_site_fract_z
 _atom_site_occupancy
  K  K0  1  0.58581191  0.15567626  0.77566290  1
  I  I1  1  0.09892543  0.14722028  0.55416191  1
  I  I2  1  0.10636134  0.14048836  0.05425594  1
  Sb  Sb3  1  0.59641153  0.92538083  0.06970391  1
  I  I4  1  0.61442304  0.64491618  0.30319715  1
  I  I5  1  0.58461261  0.65666431  0.80990404  1
  Ac  Ac6  1  0.11418128  0.65893859  0.55370533  1
  As  As7  1  0.61526519  0.14640979  0.31622192  1
