# generated using pymatgen
data_Sb
_symmetry_space_group_name_H-M   'P 1'
_cell_length_a   3.96939437
_cell_length_b   4.33667813
_cell_length_c   4.94929743
_cell_angle_alpha   84.70149708
_cell_angle_beta   82.58678180
_cell_angle_gamma   87.91424052
_symmetry_Int_Tables_number   1
_chemical_formula_structural   Sb
_chemical_formula_sum   Sb3
_cell_volume   84.09815440
_cell_formula_units_Z   3
loop_
 _symmetry_equiv_pos_site_id
 _symmetry_equiv_pos_as_xyz
  1  'x, y, z'
loop_
 _atom_site_type_symbol
 _atom_site_label
 _atom_site_symmetry_multiplicity
 _atom_site_fract_x
 _atom_site_fract_y
 _atom_site_fract_z
 _atom_site_occupancy
  Sb  Sb0  1  0.13035803  0.51377851  0.78611344  1
  Sb  Sb1  1  0.13183901  0.01573664  0.28350186  1
  Sb  Sb2  1  0.62989825  0.02215031  0.78443348  1
