# generated using pymatgen
data_Ce3NdBiSe3S2
_symmetry_space_group_name_H-M   'P 1'
_cell_length_a   5.23934639
_cell_length_b   5.69674237
_cell_length_c   9.72414684
_cell_angle_alpha   89.78444172
_cell_angle_beta   92.27938017
_cell_angle_gamma   89.65948558
_symmetry_Int_Tables_number   1
_chemical_formula_structural   Ce3NdBiSe3S2
_chemical_formula_sum   'Ce3 Nd1 Bi1 Se3 S2'
_cell_volume   290.00153118
_cell_formula_units_Z   1
loop_
 _symmetry_equiv_pos_site_id
 _symmetry_equiv_pos_as_xyz
  1  'x, y, z'
loop_
 _atom_site_type_symbol
 _atom_site_label
 _atom_site_symmetry_multiplicity
 _atom_site_fract_x
 _atom_site_fract_y
 _atom_site_fract_z
 _atom_site_occupancy
  Se  Se0  1  0.48920298  0.23817083  0.16389337  1
  Bi  Bi1  1  0.47061715  0.25523153  0.66571343  1
  Se  Se2  1  0.98723662  0.24463481  0.46098545  1
  S  S3  1  0.98986191  0.74399143  0.16979191  1
  S  S4  1  0.50722253  0.74294782  0.65216947  1
  Ce  Ce5  1  0.47779402  0.75147802  0.37535974  1
  Se  Se6  1  0.96867180  0.23383844  0.87905115  1
  Ce  Ce7  1  0.98318702  0.75343847  0.67594337  1
  Ce  Ce8  1  0.98529208  0.23499663  0.16901928  1
  Nd  Nd9  1  0.48345011  0.73421162  0.96686441  1
