# generated using pymatgen
data_BaMgTl2O5F
_symmetry_space_group_name_H-M   'P 1'
_cell_length_a   5.80208075
_cell_length_b   6.02872650
_cell_length_c   6.88493109
_cell_angle_alpha   83.08298100
_cell_angle_beta   85.26168199
_cell_angle_gamma   90.39636965
_symmetry_Int_Tables_number   1
_chemical_formula_structural   BaMgTl2O5F
_chemical_formula_sum   'Ba1 Mg1 Tl2 O5 F1'
_cell_volume   238.22454336
_cell_formula_units_Z   1
loop_
 _symmetry_equiv_pos_site_id
 _symmetry_equiv_pos_as_xyz
  1  'x, y, z'
loop_
 _atom_site_type_symbol
 _atom_site_label
 _atom_site_symmetry_multiplicity
 _atom_site_fract_x
 _atom_site_fract_y
 _atom_site_fract_z
 _atom_site_occupancy
  Tl  Tl0  1  0.97487897  0.81683272  0.05524431  1
  F  F1  1  0.43073443  0.55679649  0.19014528  1
  O  O2  1  0.68413061  0.50084513  0.84085226  1
  Ba  Ba3  1  0.02242245  0.36661625  0.48988083  1
  Mg  Mg4  1  0.48395023  0.32107884  0.03172705  1
  O  O5  1  0.98834699  0.86398888  0.56068945  1
  O  O6  1  0.75249881  0.21122445  0.16886264  1
  O  O7  1  0.29258364  0.11869153  0.20483138  1
  Tl  Tl8  1  0.48044321  0.83287036  0.54907471  1
  O  O9  1  0.22857277  0.40761414  0.87111539  1
