# generated using pymatgen
data_SrLaAlGaP
_symmetry_space_group_name_H-M   'P 1'
_cell_length_a   4.44163178
_cell_length_b   4.91701862
_cell_length_c   5.77217674
_cell_angle_alpha   96.45837691
_cell_angle_beta   94.12841503
_cell_angle_gamma   92.36667317
_symmetry_Int_Tables_number   1
_chemical_formula_structural   SrLaAlGaP
_chemical_formula_sum   'Sr1 La1 Al1 Ga1 P1'
_cell_volume   124.78166024
_cell_formula_units_Z   1
loop_
 _symmetry_equiv_pos_site_id
 _symmetry_equiv_pos_as_xyz
  1  'x, y, z'
loop_
 _atom_site_type_symbol
 _atom_site_label
 _atom_site_symmetry_multiplicity
 _atom_site_fract_x
 _atom_site_fract_y
 _atom_site_fract_z
 _atom_site_occupancy
  Al  Al0  1  0.19906512  0.67761058  0.36024475  1
  P  P1  1  0.19055311  0.42297313  0.00623389  1
  Sr  Sr2  1  0.70586705  0.69070327  0.77871168  1
  La  La3  1  0.67143935  0.17302026  0.23752871  1
  Ga  Ga4  1  0.20301314  0.16644077  0.66064495  1
