# generated using pymatgen
data_Ba2SiPPtI
_symmetry_space_group_name_H-M   'P 1'
_cell_length_a   4.82837615
_cell_length_b   5.10453165
_cell_length_c   7.22071028
_cell_angle_alpha   90.30326974
_cell_angle_beta   92.40183870
_cell_angle_gamma   94.47206236
_symmetry_Int_Tables_number   1
_chemical_formula_structural   Ba2SiPPtI
_chemical_formula_sum   'Ba2 Si1 P1 Pt1 I1'
_cell_volume   177.26171091
_cell_formula_units_Z   1
loop_
 _symmetry_equiv_pos_site_id
 _symmetry_equiv_pos_as_xyz
  1  'x, y, z'
loop_
 _atom_site_type_symbol
 _atom_site_label
 _atom_site_symmetry_multiplicity
 _atom_site_fract_x
 _atom_site_fract_y
 _atom_site_fract_z
 _atom_site_occupancy
  Si  Si0  1  0.91691911  0.96428806  0.02420888  1
  I  I1  1  0.92465854  0.95045853  0.37080547  1
  P  P2  1  0.40633309  0.96380228  0.53293067  1
  Ba  Ba3  1  0.91580945  0.44857317  0.70276153  1
  Pt  Pt4  1  0.40854010  0.94252086  0.85563648  1
  Ba  Ba5  1  0.42746949  0.44613984  0.19612820  1
