# generated using pymatgen
data_InSnTeBr3
_symmetry_space_group_name_H-M   'P 1'
_cell_length_a   4.61569644
_cell_length_b   5.64204953
_cell_length_c   7.95939493
_cell_angle_alpha   90.24944782
_cell_angle_beta   89.86714850
_cell_angle_gamma   93.33896865
_symmetry_Int_Tables_number   1
_chemical_formula_structural   InSnTeBr3
_chemical_formula_sum   'In1 Sn1 Te1 Br3'
_cell_volume   206.92419425
_cell_formula_units_Z   1
loop_
 _symmetry_equiv_pos_site_id
 _symmetry_equiv_pos_as_xyz
  1  'x, y, z'
loop_
 _atom_site_type_symbol
 _atom_site_label
 _atom_site_symmetry_multiplicity
 _atom_site_fract_x
 _atom_site_fract_y
 _atom_site_fract_z
 _atom_site_occupancy
  In  In0  1  0.77445072  0.51751894  0.14902595  1
  Sn  Sn1  1  0.27338451  0.52643424  0.65143579  1
  Br  Br2  1  0.75840354  0.23904595  0.48209733  1
  Br  Br3  1  0.28335419  0.82084149  0.32064268  1
  Br  Br4  1  0.78463489  0.82208896  0.81761163  1
  Te  Te5  1  0.26803666  0.22765099  0.98177588  1
