# generated using pymatgen
data_SmY2Mg
_symmetry_space_group_name_H-M   'P 1'
_cell_length_a   4.20027662
_cell_length_b   4.60418246
_cell_length_c   5.33540630
_cell_angle_alpha   74.64314657
_cell_angle_beta   72.87921734
_cell_angle_gamma   74.13581564
_symmetry_Int_Tables_number   1
_chemical_formula_structural   SmY2Mg
_chemical_formula_sum   'Sm1 Y2 Mg1'
_cell_volume   92.92555180
_cell_formula_units_Z   1
loop_
 _symmetry_equiv_pos_site_id
 _symmetry_equiv_pos_as_xyz
  1  'x, y, z'
loop_
 _atom_site_type_symbol
 _atom_site_label
 _atom_site_symmetry_multiplicity
 _atom_site_fract_x
 _atom_site_fract_y
 _atom_site_fract_z
 _atom_site_occupancy
  Y  Y0  1  0.55562901  0.46319634  0.79853594  1
  Sm  Sm1  1  0.29119435  0.34891084  0.40361124  1
  Mg  Mg2  1  0.84587717  0.91162610  0.57275707  1
  Y  Y3  1  0.10965588  0.01135231  0.98974103  1
