# generated using pymatgen
data_CsK5Mo2(BrO3)3
_symmetry_space_group_name_H-M   'P 1'
_cell_length_a   6.22499648
_cell_length_b   6.85867806
_cell_length_c   11.13852119
_cell_angle_alpha   86.88615343
_cell_angle_beta   88.62248303
_cell_angle_gamma   90.98417878
_symmetry_Int_Tables_number   1
_chemical_formula_structural   CsK5Mo2(BrO3)3
_chemical_formula_sum   'Cs1 K5 Mo2 Br3 O9'
_cell_volume   474.64116994
_cell_formula_units_Z   1
loop_
 _symmetry_equiv_pos_site_id
 _symmetry_equiv_pos_as_xyz
  1  'x, y, z'
loop_
 _atom_site_type_symbol
 _atom_site_label
 _atom_site_symmetry_multiplicity
 _atom_site_fract_x
 _atom_site_fract_y
 _atom_site_fract_z
 _atom_site_occupancy
  Mo  Mo0  1  0.99275601  0.39487338  0.15300603  1
  K  K1  1  0.97957045  0.20683624  0.52048123  1
  O  O2  1  0.94319373  0.86363626  0.65806282  1
  Br  Br3  1  0.49101016  0.10811473  0.07859515  1
  Cs  Cs4  1  0.96599042  0.04655341  0.89425820  1
  O  O5  1  0.97548550  0.44914719  0.30007339  1
  Br  Br6  1  0.45276669  0.84599501  0.75702447  1
  K  K7  1  0.45985776  0.34650314  0.71631545  1
  O  O8  1  0.97375363  0.50082749  0.74799687  1
  Mo  Mo9  1  0.97248876  0.63381046  0.62460411  1
  O  O10  1  0.22839324  0.26309243  0.13328993  1
  O  O11  1  0.18713376  0.60600305  0.54853922  1
  O  O12  1  0.99577260  0.58897024  0.05260994  1
  O  O13  1  0.49005905  0.90246189  0.18753567  1
  K  K14  1  0.98580492  0.88575524  0.27107841  1
  K  K15  1  0.48080593  0.50690490  0.34326673  1
  K  K16  1  0.49076906  0.61257172  0.01942520  1
  O  O17  1  0.77028376  0.59869075  0.54418868  1
  O  O18  1  0.73700684  0.25865698  0.13316289  1
  Br  Br19  1  0.49127564  0.98937494  0.46106169  1
