# generated using pymatgen
data_Rb2BaSbAu
_symmetry_space_group_name_H-M   'P 1'
_cell_length_a   5.33539738
_cell_length_b   5.53123981
_cell_length_c   6.35698318
_cell_angle_alpha   79.80518003
_cell_angle_beta   79.74656354
_cell_angle_gamma   85.14068225
_symmetry_Int_Tables_number   1
_chemical_formula_structural   Rb2BaSbAu
_chemical_formula_sum   'Rb2 Ba1 Sb1 Au1'
_cell_volume   181.41820190
_cell_formula_units_Z   1
loop_
 _symmetry_equiv_pos_site_id
 _symmetry_equiv_pos_as_xyz
  1  'x, y, z'
loop_
 _atom_site_type_symbol
 _atom_site_label
 _atom_site_symmetry_multiplicity
 _atom_site_fract_x
 _atom_site_fract_y
 _atom_site_fract_z
 _atom_site_occupancy
  Rb  Rb0  1  0.34936935  0.42013505  0.01636649  1
  Rb  Rb1  1  0.85435992  0.92500186  0.96665561  1
  Sb  Sb2  1  0.79936445  0.36497557  0.46146625  1
  Au  Au3  1  0.27077857  0.31946823  0.59080219  1
  Ba  Ba4  1  0.31117558  0.85247862  0.45853823  1
