# generated using pymatgen
data_K2BaSrSbAsPtCO12
_symmetry_space_group_name_H-M   'P 1'
_cell_length_a   5.71208728
_cell_length_b   6.74131026
_cell_length_c   9.41776657
_cell_angle_alpha   89.97583730
_cell_angle_beta   87.82699811
_cell_angle_gamma   90.98805700
_symmetry_Int_Tables_number   1
_chemical_formula_structural   K2BaSrSbAsPtCO12
_chemical_formula_sum   'K2 Ba1 Sr1 Sb1 As1 Pt1 C1 O12'
_cell_volume   362.33461380
_cell_formula_units_Z   1
loop_
 _symmetry_equiv_pos_site_id
 _symmetry_equiv_pos_as_xyz
  1  'x, y, z'
loop_
 _atom_site_type_symbol
 _atom_site_label
 _atom_site_symmetry_multiplicity
 _atom_site_fract_x
 _atom_site_fract_y
 _atom_site_fract_z
 _atom_site_occupancy
  Pt  Pt0  1  0.08073418  0.11623011  0.54653454  1
  K  K1  1  0.58267647  0.65784961  0.45313603  1
  Sr  Sr2  1  0.03135565  0.38603690  0.19072671  1
  Sb  Sb3  1  0.57671380  0.14232250  0.61538577  1
  As  As4  1  0.09282209  0.90002716  0.20676835  1
  O  O5  1  0.09114417  0.03421703  0.34557015  1
  C  C6  1  0.56104499  0.43066260  0.88639235  1
  O  O7  1  0.81521738  0.94391036  0.62044936  1
  O  O8  1  0.33711380  0.30680901  0.55147922  1
  O  O9  1  0.09079923  0.00910315  0.07222520  1
  O  O10  1  0.33014828  0.46184975  0.97194278  1
  O  O11  1  0.56946802  0.58840555  0.76621562  1
  O  O12  1  0.87494332  0.76596856  0.22008869  1
  O  O13  1  0.29597548  0.76603198  0.21655628  1
  O  O14  1  0.83257037  0.30534244  0.54604632  1
  O  O15  1  0.57014990  0.21879761  0.80507928  1
  O  O16  1  0.32771790  0.94191462  0.61507952  1
  O  O17  1  0.77186239  0.46817982  0.98319268  1
  Ba  Ba18  1  0.63794458  0.89984173  0.97933578  1
  K  K19  1  0.06661077  0.60828060  0.73540545  1
