# generated using pymatgen
data_K4MnO3
_symmetry_space_group_name_H-M   'P 1'
_cell_length_a   5.06613938
_cell_length_b   5.94650806
_cell_length_c   7.38675213
_cell_angle_alpha   85.37125883
_cell_angle_beta   83.16485452
_cell_angle_gamma   85.41283924
_symmetry_Int_Tables_number   1
_chemical_formula_structural   K4MnO3
_chemical_formula_sum   'K4 Mn1 O3'
_cell_volume   219.67240484
_cell_formula_units_Z   1
loop_
 _symmetry_equiv_pos_site_id
 _symmetry_equiv_pos_as_xyz
  1  'x, y, z'
loop_
 _atom_site_type_symbol
 _atom_site_label
 _atom_site_symmetry_multiplicity
 _atom_site_fract_x
 _atom_site_fract_y
 _atom_site_fract_z
 _atom_site_occupancy
  O  O0  1  0.88979453  0.29233533  0.41266194  1
  K  K1  1  0.85809809  0.56459427  0.03710951  1
  O  O2  1  0.84901571  0.08200677  0.85888755  1
  K  K3  1  0.84815770  0.79586923  0.51922482  1
  K  K4  1  0.35447538  0.30328622  0.65770334  1
  O  O5  1  0.36947265  0.78236711  0.83493239  1
  Mn  Mn6  1  0.33231562  0.57115752  0.27626312  1
  K  K7  1  0.35175982  0.07537983  0.16731155  1
