# generated using pymatgen
data_KTe5MoAs
_symmetry_space_group_name_H-M   'P 1'
_cell_length_a   5.13035224
_cell_length_b   6.03219839
_cell_length_c   9.30411148
_cell_angle_alpha   92.38207894
_cell_angle_beta   92.76451462
_cell_angle_gamma   89.60159181
_symmetry_Int_Tables_number   1
_chemical_formula_structural   KTe5MoAs
_chemical_formula_sum   'K1 Te5 Mo1 As1'
_cell_volume   287.34999564
_cell_formula_units_Z   1
loop_
 _symmetry_equiv_pos_site_id
 _symmetry_equiv_pos_as_xyz
  1  'x, y, z'
loop_
 _atom_site_type_symbol
 _atom_site_label
 _atom_site_symmetry_multiplicity
 _atom_site_fract_x
 _atom_site_fract_y
 _atom_site_fract_z
 _atom_site_occupancy
  Te  Te0  1  0.95133889  0.36952922  0.88720596  1
  K  K1  1  0.91666019  0.82872993  0.58517480  1
  Te  Te2  1  0.47325000  0.39028093  0.19396617  1
  As  As3  1  0.48211178  0.90413648  0.19802737  1
  Te  Te4  1  0.98165441  0.90417856  0.21834162  1
  Te  Te5  1  0.45075133  0.86394262  0.89516348  1
  Mo  Mo6  1  0.45750487  0.36800042  0.88840467  1
  Te  Te7  1  0.42103767  0.33587015  0.58045185  1
