# generated using pymatgen
data_AcMnAlSe3
_symmetry_space_group_name_H-M   'P 1'
_cell_length_a   4.43897113
_cell_length_b   5.16372897
_cell_length_c   6.26143742
_cell_angle_alpha   88.19300771
_cell_angle_beta   85.31587967
_cell_angle_gamma   87.48365622
_symmetry_Int_Tables_number   1
_chemical_formula_structural   AcMnAlSe3
_chemical_formula_sum   'Ac1 Mn1 Al1 Se3'
_cell_volume   142.84884774
_cell_formula_units_Z   1
loop_
 _symmetry_equiv_pos_site_id
 _symmetry_equiv_pos_as_xyz
  1  'x, y, z'
loop_
 _atom_site_type_symbol
 _atom_site_label
 _atom_site_symmetry_multiplicity
 _atom_site_fract_x
 _atom_site_fract_y
 _atom_site_fract_z
 _atom_site_occupancy
  Mn  Mn0  1  0.08840398  0.36516315  0.40865394  1
  Se  Se1  1  0.56597728  0.35996661  0.67880756  1
  Se  Se2  1  0.61961812  0.36804506  0.14457732  1
  Al  Al3  1  0.59189790  0.86919731  0.40637112  1
  Ac  Ac4  1  0.10026085  0.86291271  0.90814131  1
  Se  Se5  1  0.08289804  0.87969965  0.40650713  1
