# generated using pymatgen
data_CsPaGaSeSI
_symmetry_space_group_name_H-M   'P 1'
_cell_length_a   4.38390492
_cell_length_b   4.81517690
_cell_length_c   7.37706947
_cell_angle_alpha   81.35379587
_cell_angle_beta   82.76350579
_cell_angle_gamma   83.08814615
_symmetry_Int_Tables_number   1
_chemical_formula_structural   CsPaGaSeSI
_chemical_formula_sum   'Cs1 Pa1 Ga1 Se1 S1 I1'
_cell_volume   151.91000530
_cell_formula_units_Z   1
loop_
 _symmetry_equiv_pos_site_id
 _symmetry_equiv_pos_as_xyz
  1  'x, y, z'
loop_
 _atom_site_type_symbol
 _atom_site_label
 _atom_site_symmetry_multiplicity
 _atom_site_fract_x
 _atom_site_fract_y
 _atom_site_fract_z
 _atom_site_occupancy
  I  I0  1  0.50870031  0.15429252  0.89155960  1
  Ga  Ga1  1  0.51306361  0.58401519  0.59596133  1
  Cs  Cs2  1  0.02818819  0.65126264  0.14732563  1
  Pa  Pa3  1  0.01637628  0.08259355  0.64693499  1
  Se  Se4  1  0.53461450  0.13004498  0.41286701  1
  S  S5  1  0.01715213  0.64023250  0.64627892  1
