# generated using pymatgen
data_CrS2
_symmetry_space_group_name_H-M   'P 1'
_cell_length_a   6.81379194
_cell_length_b   7.27565009
_cell_length_c   8.43497276
_cell_angle_alpha   82.45442579
_cell_angle_beta   83.69553934
_cell_angle_gamma   90.52060558
_symmetry_Int_Tables_number   1
_chemical_formula_structural   CrS2
_chemical_formula_sum   'Cr6 S12'
_cell_volume   411.91658964
_cell_formula_units_Z   6
loop_
 _symmetry_equiv_pos_site_id
 _symmetry_equiv_pos_as_xyz
  1  'x, y, z'
loop_
 _atom_site_type_symbol
 _atom_site_label
 _atom_site_symmetry_multiplicity
 _atom_site_fract_x
 _atom_site_fract_y
 _atom_site_fract_z
 _atom_site_occupancy
  Cr  Cr0  1  0.23434560  0.71388239  0.13014136  1
  Cr  Cr1  1  0.26280868  0.36505726  0.97257608  1
  S  S2  1  0.12988614  0.35727519  0.69692999  1
  S  S3  1  0.99627733  0.71230352  0.38450897  1
  Cr  Cr4  1  0.17411458  0.70423752  0.61992854  1
  S  S5  1  0.11648320  0.03579376  0.05420006  1
  Cr  Cr6  1  0.45660090  0.29634157  0.52260756  1
  S  S7  1  0.30045959  0.00507775  0.51263261  1
  S  S8  1  0.94916075  0.52532953  0.06016462  1
  S  S9  1  0.56370002  0.83506709  0.17895547  1
  S  S10  1  0.91501546  0.87666649  0.74699390  1
  S  S11  1  0.78821713  0.24734381  0.41831923  1
  Cr  Cr12  1  0.21354404  0.04020987  0.78048003  1
  S  S13  1  0.50248593  0.20960225  0.79756403  1
  Cr  Cr14  1  0.71663147  0.55342531  0.28539044  1
  S  S15  1  0.53375226  0.61130285  0.53667700  1
  S  S16  1  0.35245407  0.73986536  0.84730738  1
  S  S17  1  0.37822264  0.41969386  0.25013560  1
