# generated using pymatgen
data_Cs3K5WSeBrO6F
_symmetry_space_group_name_H-M   'P 1'
_cell_length_a   7.17201014
_cell_length_b   8.04344003
_cell_length_c   9.19838142
_cell_angle_alpha   84.08630895
_cell_angle_beta   83.24881784
_cell_angle_gamma   87.75776176
_symmetry_Int_Tables_number   1
_chemical_formula_structural   Cs3K5WSeBrO6F
_chemical_formula_sum   'Cs3 K5 W1 Se1 Br1 O6 F1'
_cell_volume   523.95311136
_cell_formula_units_Z   1
loop_
 _symmetry_equiv_pos_site_id
 _symmetry_equiv_pos_as_xyz
  1  'x, y, z'
loop_
 _atom_site_type_symbol
 _atom_site_label
 _atom_site_symmetry_multiplicity
 _atom_site_fract_x
 _atom_site_fract_y
 _atom_site_fract_z
 _atom_site_occupancy
  Cs  Cs0  1  0.28137612  0.70637941  0.63511735  1
  K  K1  1  0.74043107  0.54060155  0.85130370  1
  K  K2  1  0.56552857  0.00593648  0.87386823  1
  O  O3  1  0.51932609  0.14772855  0.33970433  1
  O  O4  1  0.45175412  0.09468433  0.61479712  1
  Cs  Cs5  1  0.28197420  0.35629818  0.08888756  1
  K  K6  1  0.06714721  0.18573436  0.73275435  1
  O  O7  1  0.40637046  0.69819027  0.93974215  1
  O  O8  1  0.11938328  0.67730027  0.33130905  1
  K  K9  1  0.83597726  0.90490538  0.47208637  1
  Se  Se10  1  0.83022285  0.17484541  0.09233913  1
  F  F11  1  0.32616901  0.35642412  0.46802261  1
  Cs  Cs12  1  0.82695812  0.40544680  0.41165572  1
  O  O13  1  0.91387439  0.85498166  0.77361792  1
  O  O14  1  0.18946435  0.08207563  0.44523665  1
  W  W15  1  0.36192924  0.16614327  0.47576424  1
  K  K16  1  0.05083771  0.82266521  0.04962694  1
  Br  Br17  1  0.50718904  0.76556689  0.21045265  1
