# generated using pymatgen
data_YMg2GaS4
_symmetry_space_group_name_H-M   'P 1'
_cell_length_a   5.00444077
_cell_length_b   5.39925222
_cell_length_c   7.01258516
_cell_angle_alpha   97.44851530
_cell_angle_beta   90.43246959
_cell_angle_gamma   93.77224568
_symmetry_Int_Tables_number   1
_chemical_formula_structural   YMg2GaS4
_chemical_formula_sum   'Y1 Mg2 Ga1 S4'
_cell_volume   187.45101821
_cell_formula_units_Z   1
loop_
 _symmetry_equiv_pos_site_id
 _symmetry_equiv_pos_as_xyz
  1  'x, y, z'
loop_
 _atom_site_type_symbol
 _atom_site_label
 _atom_site_symmetry_multiplicity
 _atom_site_fract_x
 _atom_site_fract_y
 _atom_site_fract_z
 _atom_site_occupancy
  Y  Y0  1  0.63581914  0.27800453  0.78592849  1
  S  S1  1  0.61045927  0.23234244  0.41571379  1
  Mg  Mg2  1  0.60139000  0.72989666  0.39167780  1
  S  S3  1  0.61380541  0.77064842  0.76800877  1
  S  S4  1  0.11900896  0.73748350  0.26499009  1
  Mg  Mg5  1  0.11012439  0.23197892  0.27696806  1
  S  S6  1  0.12070810  0.27468497  0.88423753  1
  Ga  Ga7  1  0.12254893  0.76054978  0.89547640  1
