# generated using pymatgen
data_KBaPrYIn2BiO7F6
_symmetry_space_group_name_H-M   'P 1'
_cell_length_a   6.02226422
_cell_length_b   7.63293135
_cell_length_c   9.09900475
_cell_angle_alpha   90.01817764
_cell_angle_beta   90.17728689
_cell_angle_gamma   91.61033488
_symmetry_Int_Tables_number   1
_chemical_formula_structural   KBaPrYIn2BiO7F6
_chemical_formula_sum   'K1 Ba1 Pr1 Y1 In2 Bi1 O7 F6'
_cell_volume   418.09154605
_cell_formula_units_Z   1
loop_
 _symmetry_equiv_pos_site_id
 _symmetry_equiv_pos_as_xyz
  1  'x, y, z'
loop_
 _atom_site_type_symbol
 _atom_site_label
 _atom_site_symmetry_multiplicity
 _atom_site_fract_x
 _atom_site_fract_y
 _atom_site_fract_z
 _atom_site_occupancy
  O  O0  1  0.54090780  0.52702707  0.87977278  1
  O  O1  1  0.20545325  0.00517432  0.34538445  1
  Y  Y2  1  0.16280581  0.01065294  0.14558148  1
  F  F3  1  0.25757435  0.22742891  0.06924615  1
  Pr  Pr4  1  0.31086764  0.52135080  0.06263261  1
  F  F5  1  0.07409275  0.88134760  0.64459080  1
  F  F6  1  0.04874070  0.53529036  0.87697351  1
  Ba  Ba7  1  0.80111212  0.20829724  0.78284913  1
  F  F8  1  0.31102583  0.19285883  0.69063771  1
  O  O9  1  0.58579201  0.20118326  0.44208628  1
  K  K10  1  0.31213725  0.52307284  0.57695723  1
  F  F11  1  0.31533566  0.82326847  0.07135429  1
  O  O12  1  0.56376076  0.89109993  0.62473375  1
  In  In13  1  0.80252141  0.70704418  0.76280499  1
  O  O14  1  0.81449944  0.51954478  0.55553061  1
  F  F15  1  0.88838631  0.98488319  0.08291031  1
  O  O16  1  0.53910941  0.50634050  0.24680364  1
  O  O17  1  0.03752699  0.53348011  0.24346106  1
  Bi  Bi18  1  0.77359515  0.41042215  0.35260922  1
  In  In19  1  0.33960751  0.02712617  0.54647470  1
