# generated using pymatgen
data_GaWBr8
_symmetry_space_group_name_H-M   'P 1'
_cell_length_a   5.85797705
_cell_length_b   6.29855747
_cell_length_c   7.39354563
_cell_angle_alpha   82.62791960
_cell_angle_beta   82.71583838
_cell_angle_gamma   87.59849451
_symmetry_Int_Tables_number   1
_chemical_formula_structural   GaWBr8
_chemical_formula_sum   'Ga1 W1 Br8'
_cell_volume   268.26867812
_cell_formula_units_Z   1
loop_
 _symmetry_equiv_pos_site_id
 _symmetry_equiv_pos_as_xyz
  1  'x, y, z'
loop_
 _atom_site_type_symbol
 _atom_site_label
 _atom_site_symmetry_multiplicity
 _atom_site_fract_x
 _atom_site_fract_y
 _atom_site_fract_z
 _atom_site_occupancy
  Br  Br0  1  0.89799881  0.15560322  0.59864175  1
  Br  Br1  1  0.35166711  0.90567285  0.94754696  1
  Br  Br2  1  0.86951530  0.63781172  0.83157229  1
  Br  Br3  1  0.88693523  0.62646526  0.33432928  1
  W  W4  1  0.11942600  0.49554008  0.53568441  1
  Ga  Ga5  1  0.62277287  0.78016818  0.13393342  1
  Br  Br6  1  0.39608666  0.38969100  0.71859223  1
  Br  Br7  1  0.83854192  0.12210745  0.08672076  1
  Br  Br8  1  0.36300629  0.87300313  0.43149355  1
  Br  Br9  1  0.38639957  0.41740504  0.22545901  1
