# generated using pymatgen
data_CsPuHfMgS6
_symmetry_space_group_name_H-M   'P 1'
_cell_length_a   5.58869035
_cell_length_b   5.81703858
_cell_length_c   8.63526821
_cell_angle_alpha   81.37481916
_cell_angle_beta   80.97932365
_cell_angle_gamma   81.58345490
_symmetry_Int_Tables_number   1
_chemical_formula_structural   CsPuHfMgS6
_chemical_formula_sum   'Cs1 Pu1 Hf1 Mg1 S6'
_cell_volume   271.94333051
_cell_formula_units_Z   1
loop_
 _symmetry_equiv_pos_site_id
 _symmetry_equiv_pos_as_xyz
  1  'x, y, z'
loop_
 _atom_site_type_symbol
 _atom_site_label
 _atom_site_symmetry_multiplicity
 _atom_site_fract_x
 _atom_site_fract_y
 _atom_site_fract_z
 _atom_site_occupancy
  S  S0  1  0.47858045  0.86610073  0.52658594  1
  S  S1  1  0.56454778  0.44051272  0.19599612  1
  S  S2  1  0.07024013  0.93620467  0.20412208  1
  Cs  Cs3  1  0.97509933  0.83491087  0.56963253  1
  Pu  Pu4  1  0.15948652  0.04166253  0.83280343  1
  S  S5  1  0.00889018  0.34649926  0.51506954  1
  S  S6  1  0.12781550  0.52627707  0.86927760  1
  Mg  Mg7  1  0.57302111  0.92448562  0.20069562  1
  Hf  Hf8  1  0.07257769  0.42080393  0.19770662  1
  S  S9  1  0.65723693  0.00043228  0.87338918  1
