# generated using pymatgen
data_Ge3I11
_symmetry_space_group_name_H-M   'P 1'
_cell_length_a   6.66298066
_cell_length_b   7.45516319
_cell_length_c   9.86432076
_cell_angle_alpha   93.61926518
_cell_angle_beta   88.82499817
_cell_angle_gamma   92.95754171
_symmetry_Int_Tables_number   1
_chemical_formula_structural   Ge3I11
_chemical_formula_sum   'Ge3 I11'
_cell_volume   488.29463964
_cell_formula_units_Z   1
loop_
 _symmetry_equiv_pos_site_id
 _symmetry_equiv_pos_as_xyz
  1  'x, y, z'
loop_
 _atom_site_type_symbol
 _atom_site_label
 _atom_site_symmetry_multiplicity
 _atom_site_fract_x
 _atom_site_fract_y
 _atom_site_fract_z
 _atom_site_occupancy
  I  I0  1  0.84950554  0.38338250  0.18179752  1
  I  I1  1  0.57433933  0.75078791  0.64502865  1
  I  I2  1  0.11460768  0.02095068  0.73094916  1
  I  I3  1  0.48389825  0.20472148  0.46557191  1
  I  I4  1  0.39515465  0.64976740  0.27932569  1
  I  I5  1  0.21187918  0.56489307  0.91701126  1
  Ge  Ge6  1  0.53314394  0.47588456  0.05942526  1
  I  I7  1  0.93611765  0.93363273  0.36363757  1
  I  I8  1  0.75556940  0.81245565  0.00948222  1
  I  I9  1  0.31445128  0.12454224  0.09243467  1
  Ge  Ge10  1  0.89088649  0.66634196  0.77623910  1
  Ge  Ge11  1  0.34974477  0.38207233  0.68151093  1
  I  I12  1  0.02884127  0.47576913  0.55830884  1
  I  I13  1  0.66730601  0.31653211  0.82201290  1
