# generated using pymatgen
data_MnCu(TeCl)2
_symmetry_space_group_name_H-M   'P 1'
_cell_length_a   4.58264881
_cell_length_b   4.90273095
_cell_length_c   6.82426834
_cell_angle_alpha   86.15356158
_cell_angle_beta   85.41373552
_cell_angle_gamma   92.85793075
_symmetry_Int_Tables_number   1
_chemical_formula_structural   MnCu(TeCl)2
_chemical_formula_sum   'Mn1 Cu1 Te2 Cl2'
_cell_volume   152.25375469
_cell_formula_units_Z   1
loop_
 _symmetry_equiv_pos_site_id
 _symmetry_equiv_pos_as_xyz
  1  'x, y, z'
loop_
 _atom_site_type_symbol
 _atom_site_label
 _atom_site_symmetry_multiplicity
 _atom_site_fract_x
 _atom_site_fract_y
 _atom_site_fract_z
 _atom_site_occupancy
  Cl  Cl0  1  0.07581258  0.88918841  0.43515229  1
  Cl  Cl1  1  0.58183175  0.39503077  0.93892473  1
  Te  Te2  1  0.53813207  0.41176668  0.45619413  1
  Mn  Mn3  1  0.06619310  0.40065482  0.19449823  1
  Te  Te4  1  0.05473461  0.91979569  0.95803314  1
  Cu  Cu5  1  0.56462729  0.89690751  0.69520658  1
